         100
          20          40 sandwich brushes MD
Xe    39.810  76.165  57.553
H    35.543  73.762  56.539
H    44.076  78.567  58.566
Xe   101.395 102.171  14.292
H   100.649 104.978  10.222
H   102.141  99.365  18.363
Xe    98.084 117.843  56.335
H   100.652 117.133  52.104
H    95.517 118.553  60.566
Xe   116.893  93.303  45.317
H   115.224  88.772  44.017
H   118.561  97.834  46.616
Xe    27.549 117.579 122.595
H    27.670 121.961 120.190
H    27.428 113.197 124.999
Xe    21.671  58.352  84.968
H    25.864  59.488  82.493
H    17.477  57.217  87.442
Xe    20.292  66.944  52.207
H    17.040  69.676  49.569
H    23.544  64.212  54.845
Xe    46.613  11.103  47.736
H    44.976  13.159  51.990
H    48.250   9.048  43.482
Xe    75.622  39.690  48.261
H    73.073  37.885  52.166
H    78.172  41.494  44.357
Xe    33.057  78.205  88.714
H    31.430  82.793  89.856
H    34.683  73.617  87.572
Xe    75.906  41.661  99.078
H    72.526  43.172  95.717
H    79.285  40.149 102.439
Xe    88.908 113.043  41.441
H    93.816 112.124  41.688
H    83.999 113.962  41.194
Xe    15.679 107.424  64.626
H    16.209 105.029  60.269
H    15.148 109.819  68.983
Xe    57.060  93.037   9.570
H    58.593  89.391   6.512
H    55.527  96.684  12.628
Xe   116.868   4.789  59.462
H   115.737   4.934  64.330
H   117.998   4.643  54.593
Xe    77.720  91.178  59.170
H    81.862  93.935  59.664
H    73.579  88.420  58.676
Xe    55.155 103.219  80.430
H    56.814  99.360  83.142
H    53.496 107.079  77.719
Xe    85.173  92.436 115.619
H    81.974  88.704 116.537
H    88.372  96.167 114.701
Xe     4.029 105.154  79.700
H     2.392 109.754  80.778
H     5.667 100.554  78.622
Xe    89.432  72.221  32.869
H    91.772  76.577  32.123
H    87.093  67.865  33.614
N     45.187  12.999  51.816
N     57.479  99.376  83.683
N     23.615  64.147  54.940
N     72.010  42.728  95.883
O    113.184  44.650  76.671
N     72.171  37.573  52.191
N     53.553 106.856  77.403
O     20.324  22.685  33.704
N     48.554   9.382  42.979
N      5.663 100.262  78.408
N     86.841  67.751  34.106
O     63.462  97.629  11.515
N     25.896  59.418  82.020
N     91.735  76.525  31.713
N     81.483  88.211 116.709
N     44.044  78.839  58.562
N     88.189  95.714 114.546
N     58.598  89.632   6.581
N     35.319  73.678  56.429
N     55.396  96.620  12.709
N    100.093 117.200  52.163
N    114.657  88.927  44.293
N     78.178  41.584  44.303
O     82.001  60.501  46.295
O     80.753  37.758  90.999
N     81.475  93.899  59.524
N    117.745   4.749  54.216
N     27.379 121.627 119.899
N    115.885   5.066  64.246
N     17.645  57.060  87.843
N    102.130  99.392  18.730
N     15.111 109.962  68.912
N     79.213  40.089 102.481
O      7.706  95.890  56.961
N     27.611 112.977 124.789
N     84.490 114.419  41.423
N     17.317  69.720  49.901
N     95.760 118.379  60.682
N     31.458  82.747  89.363
O     52.900 101.545  94.166
