         100
          20          40 sandwich brushes MD
Xe     7.971   3.067   9.359
H     7.782   3.417   9.056
H     8.159   2.717   9.662
Xe     0.375   1.634  12.471
H     0.116   1.878  12.822
H     0.634   1.391  12.119
Xe     2.612   0.666   9.208
H     2.639   0.717   9.705
H     2.586   0.616   8.711
Xe     6.108   0.840   6.017
H     5.996   1.311   6.142
H     6.220   0.369   5.892
Xe     8.997   3.957   2.003
H     9.436   3.783   1.840
H     8.557   4.131   2.166
Xe    12.138   8.305  11.688
H    11.888   8.697  11.871
H    12.389   7.913  11.505
Xe    12.184   3.538   7.672
H    11.887   3.155   7.549
H    12.481   3.921   7.795
Xe     6.965  10.225   5.040
H     6.956   9.732   4.955
H     6.974  10.717   5.125
Xe    10.302   9.129   8.189
H    10.142   9.173   7.717
H    10.461   9.084   8.661
Xe     4.194   2.440   4.250
H     4.031   1.977   4.348
H     4.357   2.902   4.152
Xe     0.580   1.303   0.997
H     0.697   1.713   1.258
H     0.463   0.893   0.735
Xe     6.375   9.736   9.913
H     6.359  10.227  10.011
H     6.391   9.246   9.816
Xe    11.837  11.924   6.749
H    12.098  12.343   6.675
H    11.575  11.504   6.823
Xe     6.873  12.154   3.613
H     6.741  11.729   3.840
H     7.006  12.579   3.385
Xe     1.537   4.940   7.020
H     1.674   5.064   6.555
H     1.399   4.817   7.484
Xe     1.633   3.177  11.895
H     1.828   2.931  12.284
H     1.437   3.423  11.506
Xe     5.752   0.061  11.724
H     5.679   0.431  12.052
H     5.825  -0.309  11.395
Xe     4.625  11.701   1.286
H     4.777  12.177   1.310
H     4.473  11.226   1.262
Xe    11.591   0.311   5.541
H    12.020   0.535   5.666
H    11.161   0.087   5.417
Xe    12.457   8.627   8.264
H    12.846   8.532   7.965
H    12.068   8.722   8.563
N      8.544   4.071   2.138
N      9.434   3.775   1.838
N     11.870   3.173   7.527
N      6.759  11.740   3.843
N      4.353   2.910   4.131
O      5.498  11.281   6.971
N      2.628   0.695   9.699
N      0.619   1.384  12.094
N      8.173   2.692   9.652
N      0.114   1.860   0.212
N     12.447   3.911   7.832
N     12.038   8.751   8.611
N      6.985  10.743   5.157
N     11.865   8.664  11.889
N      6.975   9.729   4.964
O     10.665  11.905   8.550
N      6.365  10.196   9.956
N      7.023  12.526   3.393
N      6.002   1.293   6.110
N      5.675   0.425  11.999
N      1.446   3.463  11.484
N      4.464  11.264   1.272
N      7.796   3.371   9.040
O      4.237   8.407  10.722
O      3.592   8.340   1.848
N      0.686   1.708   1.291
N      4.013   1.987   4.329
N      4.758  12.196   1.299
N      2.610   0.590   8.693
N     10.181   9.203   7.729
O      0.281   5.486   9.532
N      1.798   2.957  12.291
N      6.235   0.357   5.897
N     12.033  12.398   6.681
N      1.407   4.777   7.441
N     10.487   9.076   8.687
N     11.215   0.106   5.447
N     11.979   0.559   5.705
N     11.535  11.523   6.828
O      7.754   1.987   2.545
